384

Ba 1.9387682070 1.9387682070 2.3463983129
Ba 1.9387682070 1.9387682070 9.7491015596
Ba 1.9387682070 1.9387682070 14.4418981853
Ba 1.9387682070 1.9387682070 21.8446014320
Ba 1.9387682070 5.8163046211 2.3463983129
Ba 1.9387682070 5.8163046211 9.7491015596
Ba 1.9387682070 5.8163046211 14.4418981853
Ba 1.9387682070 5.8163046211 21.8446014320
Ba 1.9387682070 9.6938410352 2.3463983129
Ba 1.9387682070 9.6938410352 9.7491015596
Ba 1.9387682070 9.6938410352 14.4418981853
Ba 1.9387682070 9.6938410352 21.8446014320
Ba 1.9387682070 13.5713774493 2.3463983129
Ba 1.9387682070 13.5713774493 9.7491015596
Ba 1.9387682070 13.5713774493 14.4418981853
Ba 1.9387682070 13.5713774493 21.8446014320
Ba 5.8163046211 1.9387682070 2.3463983129
Ba 5.8163046211 1.9387682070 9.7491015596
Ba 5.8163046211 1.9387682070 14.4418981853
Ba 5.8163046211 1.9387682070 21.8446014320
Ba 5.8163046211 5.8163046211 2.3463983129
Ba 5.8163046211 5.8163046211 9.7491015596
Ba 5.8163046211 5.8163046211 14.4418981853
Ba 5.8163046211 5.8163046211 21.8446014320
Ba 5.8163046211 9.6938410352 2.3463983129
Ba 5.8163046211 9.6938410352 9.7491015596
Ba 5.8163046211 9.6938410352 14.4418981853
Ba 5.8163046211 9.6938410352 21.8446014320
Ba 5.8163046211 13.5713774493 2.3463983129
Ba 5.8163046211 13.5713774493 9.7491015596
Ba 5.8163046211 13.5713774493 14.4418981853
Ba 5.8163046211 13.5713774493 21.8446014320
Ba 9.6938410352 1.9387682070 2.3463983129
Ba 9.6938410352 1.9387682070 9.7491015596
Ba 9.6938410352 1.9387682070 14.4418981853
Ba 9.6938410352 1.9387682070 21.8446014320
Ba 9.6938410352 5.8163046211 2.3463983129
Ba 9.6938410352 5.8163046211 9.7491015596
Ba 9.6938410352 5.8163046211 14.4418981853
Ba 9.6938410352 5.8163046211 21.8446014320
Ba 9.6938410352 9.6938410352 2.3463983129
Ba 9.6938410352 9.6938410352 9.7491015596
Ba 9.6938410352 9.6938410352 14.4418981853
Ba 9.6938410352 9.6938410352 21.8446014320
Ba 9.6938410352 13.5713774493 2.3463983129
Ba 9.6938410352 13.5713774493 9.7491015596
Ba 9.6938410352 13.5713774493 14.4418981853
Ba 9.6938410352 13.5713774493 21.8446014320
Ba 13.5713774493 1.9387682070 2.3463983129
Ba 13.5713774493 1.9387682070 9.7491015596
Ba 13.5713774493 1.9387682070 14.4418981853
Ba 13.5713774493 1.9387682070 21.8446014320
Ba 13.5713774493 5.8163046211 2.3463983129
Ba 13.5713774493 5.8163046211 9.7491015596
Ba 13.5713774493 5.8163046211 14.4418981853
Ba 13.5713774493 5.8163046211 21.8446014320
Ba 13.5713774493 9.6938410352 2.3463983129
Ba 13.5713774493 9.6938410352 9.7491015596
Ba 13.5713774493 9.6938410352 14.4418981853
Ba 13.5713774493 9.6938410352 21.8446014320
Ba 13.5713774493 13.5713774493 2.3463983129
Ba 13.5713774493 13.5713774493 9.7491015596
Ba 13.5713774493 13.5713774493 14.4418981853
Ba 13.5713774493 13.5713774493 21.8446014320
Cu 0.0000000000 0.0000000000 0.0000000000 PatrialCharge(1.0) -0.150861 0.014424 0.130511
Cu 0.0000000000 0.0000000000 4.3870399043 PatrialCharge(1.0) 0.148631 -0.059177 0.120028
Cu 0.0000000000 0.0000000000 7.7084599682 PatrialCharge(1.0) -0.246192 -0.263606 0.172919
Cu 0.0000000000 0.0000000000 12.0954998724 PatrialCharge(1.0) 0.141261 -0.108256 0.091247
Cu 0.0000000000 0.0000000000 16.4825397767 PatrialCharge(1.0) 0.051737 -0.026220 0.191405
Cu 0.0000000000 0.0000000000 19.8039598406 PatrialCharge(1.0) 0.191704 -0.048160 -0.030498
Cu 0.0000000000 3.8775364141 0.0000000000 PatrialCharge(1.0) 0.071102 0.146753 0.115793
Cu 0.0000000000 3.8775364141 4.3870399043 PatrialCharge(1.0) -0.011745 -0.152914 -0.128372
Cu 0.0000000000 3.8775364141 7.7084599682 PatrialCharge(1.0) 0.139275 -0.083710 0.116598
Cu 0.0000000000 3.8775364141 12.0954998724 PatrialCharge(1.0) -0.016429 0.138325 0.143514
Cu 0.0000000000 3.8775364141 16.4825397767 PatrialCharge(1.0) 0.104039 0.163913 -0.048045
Cu 0.0000000000 3.8775364141 19.8039598406 PatrialCharge(1.0) -0.161838 0.117497 -0.001687
Cu 0.0000000000 7.7550728282 0.0000000000 PatrialCharge(1.0) -0.127044 0.088000 -0.126948
Cu 0.0000000000 7.7550728282 4.3870399043 PatrialCharge(1.0) -0.094548 0.151674 0.089753
Cu 0.0000000000 7.7550728282 7.7084599682 PatrialCharge(1.0) 0.032474 0.185053 -0.068563
Cu 0.0000000000 7.7550728282 12.0954998724 PatrialCharge(1.0) 0.178052 0.075988 0.050234
Cu 0.0000000000 7.7550728282 16.4825397767 PatrialCharge(1.0) 0.194445 -0.041485 -0.021683
Cu 0.0000000000 7.7550728282 19.8039598406
Cu 0.0000000000 11.6326092423 0.0000000000
Cu 0.0000000000 11.6326092423 4.3870399043
Cu 0.0000000000 11.6326092423 7.7084599682 PatrialCharge(1.0) 0.136485 0.011714 0.145721
Cu 0.0000000000 11.6326092423 12.0954998724 PatrialCharge(1.0) 0.199917 0.005552 -0.001506
Cu 0.0000000000 11.6326092423 16.4825397767
Cu 0.0000000000 11.6326092423 19.8039598406
Cu 3.8775364141 0.0000000000 0.0000000000
Cu 3.8775364141 0.0000000000 4.3870399043
Cu 3.8775364141 0.0000000000 7.7084599682
Cu 3.8775364141 0.0000000000 12.0954998724
Cu 3.8775364141 0.0000000000 16.4825397767
Cu 3.8775364141 0.0000000000 19.8039598406
Cu 3.8775364141 3.8775364141 0.0000000000 PatrialCharge(1.0) 0.059626 0.139237 0.130605
Cu 3.8775364141 3.8775364141 4.3870399043 PatrialCharge(1.0) 0.115997 0.022662 -0.161342
Cu 3.8775364141 3.8775364141 7.7084599682 PatrialCharge(1.0) -0.043238 -0.014484 0.194732
Cu 3.8775364141 3.8775364141 12.0954998724 PatrialCharge(1.0) 0.164284 -0.105605 -0.043109
Cu 3.8775364141 3.8775364141 16.4825397767 PatrialCharge(1.0) -0.114882 -0.020479 -0.162428
Cu 3.8775364141 3.8775364141 19.8039598406 PatrialCharge(1.0) -0.099361 0.138617 0.104464
Cu 3.8775364141 7.7550728282 0.0000000000 PatrialCharge(1.0) 0.117465 0.148344 -0.064776
Cu 3.8775364141 7.7550728282 4.3870399043 PatrialCharge(1.0) 0.156231 0.013645 -0.124119
Cu 3.8775364141 7.7550728282 7.7084599682 PatrialCharge(1.0) 0.102807 -0.117661 -0.124846
Cu 3.8775364141 7.7550728282 12.0954998724 PatrialCharge(1.0) -0.190481 -0.053798 -0.028681
Cu 3.8775364141 7.7550728282 16.4825397767 PatrialCharge(1.0) -0.007784 0.199836 -0.002188
Cu 3.8775364141 7.7550728282 19.8039598406
Cu 3.8775364141 11.6326092423 0.0000000000
Cu 3.8775364141 11.6326092423 4.3870399043
Cu 3.8775364141 11.6326092423 7.7084599682 PatrialCharge(1.0) 0.145484 0.003064 -0.137205
Cu 3.8775364141 11.6326092423 12.0954998724 PatrialCharge(1.0) -0.047410 0.115446 -0.156283
Cu 3.8775364141 11.6326092423 16.4825397767
Cu 3.8775364141 11.6326092423 19.8039598406
Cu 7.7550728282 0.0000000000 0.0000000000
Cu 7.7550728282 0.0000000000 4.3870399043
Cu 7.7550728282 0.0000000000 7.7084599682
Cu 7.7550728282 0.0000000000 12.0954998724
Cu 7.7550728282 0.0000000000 16.4825397767
Cu 7.7550728282 0.0000000000 19.8039598406
Cu 7.7550728282 3.8775364141 0.0000000000
Cu 7.7550728282 3.8775364141 4.3870399043
Cu 7.7550728282 3.8775364141 7.7084599682
Cu 7.7550728282 3.8775364141 12.0954998724
Cu 7.7550728282 3.8775364141 16.4825397767
Cu 7.7550728282 3.8775364141 19.8039598406
Cu 7.7550728282 7.7550728282 0.0000000000
Cu 7.7550728282 7.7550728282 4.3870399043 PatrialCharge(1.0) -0.190045 0.025322 0.056935
Cu 7.7550728282 7.7550728282 7.7084599682 PatrialCharge(1.0) -0.187648 -0.006415 -0.068899
Cu 7.7550728282 7.7550728282 12.0954998724 PatrialCharge(1.0) 0.137105 0.145474 0.006284
Cu 7.7550728282 7.7550728282 16.4825397767
Cu 7.7550728282 7.7550728282 19.8039598406
Cu 7.7550728282 11.6326092423 0.0000000000
Cu 7.7550728282 11.6326092423 4.3870399043
Cu 7.7550728282 11.6326092423 7.7084599682
Cu 7.7550728282 11.6326092423 12.0954998724
Cu 7.7550728282 11.6326092423 16.4825397767
Cu 7.7550728282 11.6326092423 19.8039598406
Cu 11.6326092423 0.0000000000 0.0000000000
Cu 11.6326092423 0.0000000000 4.3870399043
Cu 11.6326092423 0.0000000000 7.7084599682
Cu 11.6326092423 0.0000000000 12.0954998724
Cu 11.6326092423 0.0000000000 16.4825397767
Cu 11.6326092423 0.0000000000 19.8039598406
Cu 11.6326092423 3.8775364141 0.0000000000
Cu 11.6326092423 3.8775364141 4.3870399043
Cu 11.6326092423 3.8775364141 7.7084599682
Cu 11.6326092423 3.8775364141 12.0954998724
Cu 11.6326092423 3.8775364141 16.4825397767
Cu 11.6326092423 3.8775364141 19.8039598406
Cu 11.6326092423 7.7550728282 0.0000000000
Cu 11.6326092423 7.7550728282 4.3870399043
Cu 11.6326092423 7.7550728282 7.7084599682
Cu 11.6326092423 7.7550728282 12.0954998724
Cu 11.6326092423 7.7550728282 16.4825397767
Cu 11.6326092423 7.7550728282 19.8039598406
Cu 11.6326092423 11.6326092423 0.0000000000
Cu 11.6326092423 11.6326092423 4.3870399043
Cu 11.6326092423 11.6326092423 7.7084599682
Cu 11.6326092423 11.6326092423 12.0954998724
Cu 11.6326092423 11.6326092423 16.4825397767
Cu 11.6326092423 11.6326092423 19.8039598406
O 0.0000000000 0.0000000000 1.8172210033 PatrialCharge(1.0) 0.117710 0.152064 0.054962
O 0.0000000000 0.0000000000 10.2782788691 PatrialCharge(1.0) 0.166537 0.087813 0.067486
O 0.0000000000 1.9387682070 4.5943263840
O 1.9387682070 0.0000000000 4.5943263840
O 0.0000000000 1.9387682070 7.5011734885
O 1.9387682070 0.0000000000 7.5011734885
O 0.0000000000 0.0000000000 13.9127208757 PatrialCharge(1.0) 0.084219 0.022885 -0.179954
O 0.0000000000 0.0000000000 22.3737787415
O 0.0000000000 1.9387682070 16.6898262564
O 1.9387682070 0.0000000000 16.6898262564
O 0.0000000000 1.9387682070 19.5966733609
O 1.9387682070 0.0000000000 19.5966733609
O 0.0000000000 3.8775364141 1.8172210033 PatrialCharge(1.0) -0.130593 -0.060570 0.138841
O 0.0000000000 3.8775364141 10.2782788691 PatrialCharge(1.0) 0.061422 0.098796 0.162686
O 0.0000000000 5.8163046211 4.5943263840
O 1.9387682070 3.8775364141 4.5943263840
O 0.0000000000 5.8163046211 7.5011734885
O 1.9387682070 3.8775364141 7.5011734885
O 0.0000000000 3.8775364141 13.9127208757 PatrialCharge(1.0) 0.114842 0.133847 -0.094319
O 0.0000000000 3.8775364141 22.3737787415
O 0.0000000000 5.8163046211 16.6898262564
O 1.9387682070 3.8775364141 16.6898262564
O 0.0000000000 5.8163046211 19.5966733609
O 1.9387682070 3.8775364141 19.5966733609
O 0.0000000000 7.7550728282 1.8172210033 PatrialCharge(1.0) -0.108394 0.046257 0.161589
O 0.0000000000 7.7550728282 10.2782788691 PatrialCharge(1.0) 0.169323 -0.040841 -0.098295
O 0.0000000000 9.6938410352 4.5943263840
O 1.9387682070 7.7550728282 4.5943263840
O 0.0000000000 9.6938410352 7.5011734885
O 1.9387682070 7.7550728282 7.5011734885
O 0.0000000000 7.7550728282 13.9127208757 PatrialCharge(1.0) 0.058322 0.149312 0.119602
O 0.0000000000 7.7550728282 22.3737787415
O 0.0000000000 9.6938410352 16.6898262564
O 1.9387682070 7.7550728282 16.6898262564
O 0.0000000000 9.6938410352 19.5966733609
O 1.9387682070 7.7550728282 19.5966733609
O 0.0000000000 11.6326092423 1.8172210033 PatrialCharge(1.0) -0.049828 0.162412 0.105543
O 0.0000000000 11.6326092423 10.2782788691 PatrialCharge(1.0) -0.021290 -0.144632 -0.136486
O 0.0000000000 13.5713774493 4.5943263840
O 1.9387682070 11.6326092423 4.5943263840
O 0.0000000000 13.5713774493 7.5011734885
O 1.9387682070 11.6326092423 7.5011734885
O 0.0000000000 11.6326092423 13.9127208757 PatrialCharge(1.0) -0.033539 0.193283 0.038945
O 0.0000000000 11.6326092423 22.3737787415
O 0.0000000000 13.5713774493 16.6898262564
O 1.9387682070 11.6326092423 16.6898262564
O 0.0000000000 13.5713774493 19.5966733609
O 1.9387682070 11.6326092423 19.5966733609
O 3.8775364141 0.0000000000 1.8172210033
O 3.8775364141 0.0000000000 10.2782788691
O 3.8775364141 1.9387682070 4.5943263840
O 5.8163046211 0.0000000000 4.5943263840
O 3.8775364141 1.9387682070 7.5011734885
O 5.8163046211 0.0000000000 7.5011734885
O 3.8775364141 0.0000000000 13.9127208757
O 3.8775364141 0.0000000000 22.3737787415
O 3.8775364141 1.9387682070 16.6898262564
O 5.8163046211 0.0000000000 16.6898262564
O 3.8775364141 1.9387682070 19.5966733609
O 5.8163046211 0.0000000000 19.5966733609
O 3.8775364141 3.8775364141 1.8172210033 PatrialCharge(1.0) 0.188098 -0.067270 -0.009693
O 3.8775364141 3.8775364141 10.2782788691 PatrialCharge(1.0) 0.042831 -0.129634 -0.146153
O 3.8775364141 5.8163046211 4.5943263840
O 5.8163046211 3.8775364141 4.5943263840
O 3.8775364141 5.8163046211 7.5011734885
O 5.8163046211 3.8775364141 7.5011734885
O 3.8775364141 3.8775364141 13.9127208757 PatrialCharge(1.0) -0.101110 0.172164 -0.011679
O 3.8775364141 3.8775364141 22.3737787415
O 3.8775364141 5.8163046211 16.6898262564
O 5.8163046211 3.8775364141 16.6898262564
O 3.8775364141 5.8163046211 19.5966733609
O 5.8163046211 3.8775364141 19.5966733609
O 3.8775364141 7.7550728282 1.8172210033 PatrialCharge(1.0) -0.131883 0.002343 -0.150338
O 3.8775364141 7.7550728282 10.2782788691 PatrialCharge(1.0) -0.057003 -0.169071 -0.090364
O 3.8775364141 9.6938410352 4.5943263840
O 5.8163046211 7.7550728282 4.5943263840
O 3.8775364141 9.6938410352 7.5011734885
O 5.8163046211 7.7550728282 7.5011734885
O 3.8775364141 7.7550728282 13.9127208757 PatrialCharge(1.0) 0.040404 -0.066162 0.184364
O 3.8775364141 7.7550728282 22.3737787415
O 3.8775364141 9.6938410352 16.6898262564
O 5.8163046211 7.7550728282 16.6898262564
O 3.8775364141 9.6938410352 19.5966733609
O 5.8163046211 7.7550728282 19.5966733609
O 3.8775364141 11.6326092423 1.8172210033
O 3.8775364141 11.6326092423 10.2782788691 PatrialCharge(1.0) -0.026758 0.139589 0.140709
O 3.8775364141 13.5713774493 4.5943263840
O 5.8163046211 11.6326092423 4.5943263840
O 3.8775364141 13.5713774493 7.5011734885
O 5.8163046211 11.6326092423 7.5011734885
O 3.8775364141 11.6326092423 13.9127208757
O 3.8775364141 11.6326092423 22.3737787415
O 3.8775364141 13.5713774493 16.6898262564
O 5.8163046211 11.6326092423 16.6898262564
O 3.8775364141 13.5713774493 19.5966733609
O 5.8163046211 11.6326092423 19.5966733609
O 7.7550728282 0.0000000000 1.8172210033
O 7.7550728282 0.0000000000 10.2782788691
O 7.7550728282 1.9387682070 4.5943263840
O 9.6938410352 0.0000000000 4.5943263840
O 7.7550728282 1.9387682070 7.5011734885
O 9.6938410352 0.0000000000 7.5011734885
O 7.7550728282 0.0000000000 13.9127208757
O 7.7550728282 0.0000000000 22.3737787415
O 7.7550728282 1.9387682070 16.6898262564
O 9.6938410352 0.0000000000 16.6898262564
O 7.7550728282 1.9387682070 19.5966733609
O 9.6938410352 0.0000000000 19.5966733609
O 7.7550728282 3.8775364141 1.8172210033
O 7.7550728282 3.8775364141 10.2782788691
O 7.7550728282 5.8163046211 4.5943263840
O 9.6938410352 3.8775364141 4.5943263840
O 7.7550728282 5.8163046211 7.5011734885
O 9.6938410352 3.8775364141 7.5011734885
O 7.7550728282 3.8775364141 13.9127208757
O 7.7550728282 3.8775364141 22.3737787415
O 7.7550728282 5.8163046211 16.6898262564
O 9.6938410352 3.8775364141 16.6898262564
O 7.7550728282 5.8163046211 19.5966733609
O 9.6938410352 3.8775364141 19.5966733609
O 7.7550728282 7.7550728282 1.8172210033 PatrialCharge(1.0) -0.081750 -0.143293 0.113066
O 7.7550728282 7.7550728282 10.2782788691 PatrialCharge(1.0) -0.183549 -0.012578 0.078431
O 7.7550728282 9.6938410352 4.5943263840
O 9.6938410352 7.7550728282 4.5943263840
O 7.7550728282 9.6938410352 7.5011734885
O 9.6938410352 7.7550728282 7.5011734885
O 7.7550728282 7.7550728282 13.9127208757 PatrialCharge(1.0) 0.160825 0.112402 0.038745
O 7.7550728282 7.7550728282 22.3737787415
O 7.7550728282 9.6938410352 16.6898262564
O 9.6938410352 7.7550728282 16.6898262564
O 7.7550728282 9.6938410352 19.5966733609
O 9.6938410352 7.7550728282 19.5966733609
O 7.7550728282 11.6326092423 1.8172210033
O 7.7550728282 11.6326092423 10.2782788691
O 7.7550728282 13.5713774493 4.5943263840
O 9.6938410352 11.6326092423 4.5943263840
O 7.7550728282 13.5713774493 7.5011734885
O 9.6938410352 11.6326092423 7.5011734885
O 7.7550728282 11.6326092423 13.9127208757
O 7.7550728282 11.6326092423 22.3737787415
O 7.7550728282 13.5713774493 16.6898262564
O 9.6938410352 11.6326092423 16.6898262564
O 7.7550728282 13.5713774493 19.5966733609
O 9.6938410352 11.6326092423 19.5966733609
O 11.6326092423 0.0000000000 1.8172210033
O 11.6326092423 0.0000000000 10.2782788691
O 11.6326092423 1.9387682070 4.5943263840
O 13.5713774493 0.0000000000 4.5943263840
O 11.6326092423 1.9387682070 7.5011734885
O 13.5713774493 0.0000000000 7.5011734885
O 11.6326092423 0.0000000000 13.9127208757
O 11.6326092423 0.0000000000 22.3737787415
O 11.6326092423 1.9387682070 16.6898262564
O 13.5713774493 0.0000000000 16.6898262564
O 11.6326092423 1.9387682070 19.5966733609
O 13.5713774493 0.0000000000 19.5966733609
O 11.6326092423 3.8775364141 1.8172210033
O 11.6326092423 3.8775364141 10.2782788691
O 11.6326092423 5.8163046211 4.5943263840
O 13.5713774493 3.8775364141 4.5943263840
O 11.6326092423 5.8163046211 7.5011734885
O 13.5713774493 3.8775364141 7.5011734885
O 11.6326092423 3.8775364141 13.9127208757
O 11.6326092423 3.8775364141 22.3737787415
O 11.6326092423 5.8163046211 16.6898262564
O 13.5713774493 3.8775364141 16.6898262564
O 11.6326092423 5.8163046211 19.5966733609
O 13.5713774493 3.8775364141 19.5966733609
O 11.6326092423 7.7550728282 1.8172210033
O 11.6326092423 7.7550728282 10.2782788691
O 11.6326092423 9.6938410352 4.5943263840
O 13.5713774493 7.7550728282 4.5943263840
O 11.6326092423 9.6938410352 7.5011734885
O 13.5713774493 7.7550728282 7.5011734885
O 11.6326092423 7.7550728282 13.9127208757
O 11.6326092423 7.7550728282 22.3737787415
O 11.6326092423 9.6938410352 16.6898262564
O 13.5713774493 7.7550728282 16.6898262564
O 11.6326092423 9.6938410352 19.5966733609
O 13.5713774493 7.7550728282 19.5966733609
O 11.6326092423 11.6326092423 1.8172210033
O 11.6326092423 11.6326092423 10.2782788691
O 11.6326092423 13.5713774493 4.5943263840
O 13.5713774493 11.6326092423 4.5943263840
O 11.6326092423 13.5713774493 7.5011734885
O 13.5713774493 11.6326092423 7.5011734885
O 11.6326092423 11.6326092423 13.9127208757
O 11.6326092423 11.6326092423 22.3737787415
O 11.6326092423 13.5713774493 16.6898262564
O 13.5713774493 11.6326092423 16.6898262564
O 11.6326092423 13.5713774493 19.5966733609
O 13.5713774493 11.6326092423 19.5966733609
Y 1.9387682070 1.9387682070 6.0477499362
Y 1.9387682070 1.9387682070 18.1432498086
Y 1.9387682070 5.8163046211 6.0477499362
Y 1.9387682070 5.8163046211 18.1432498086
Y 1.9387682070 9.6938410352 6.0477499362
Y 1.9387682070 9.6938410352 18.1432498086
Y 1.9387682070 13.5713774493 6.0477499362
Y 1.9387682070 13.5713774493 18.1432498086
Y 5.8163046211 1.9387682070 6.0477499362
Y 5.8163046211 1.9387682070 18.1432498086
Y 5.8163046211 5.8163046211 6.0477499362
Y 5.8163046211 5.8163046211 18.1432498086
Y 5.8163046211 9.6938410352 6.0477499362
Y 5.8163046211 9.6938410352 18.1432498086
Y 5.8163046211 13.5713774493 6.0477499362
Y 5.8163046211 13.5713774493 18.1432498086
Y 9.6938410352 1.9387682070 6.0477499362
Y 9.6938410352 1.9387682070 18.1432498086
Y 9.6938410352 5.8163046211 6.0477499362
Y 9.6938410352 5.8163046211 18.1432498086
Y 9.6938410352 9.6938410352 6.0477499362
Y 9.6938410352 9.6938410352 18.1432498086
Y 9.6938410352 13.5713774493 6.0477499362
Y 9.6938410352 13.5713774493 18.1432498086
Y 13.5713774493 1.9387682070 6.0477499362
Y 13.5713774493 1.9387682070 18.1432498086
Y 13.5713774493 5.8163046211 6.0477499362
Y 13.5713774493 5.8163046211 18.1432498086
Y 13.5713774493 9.6938410352 6.0477499362
Y 13.5713774493 9.6938410352 18.1432498086
Y 13.5713774493 13.5713774493 6.0477499362
Y 13.5713774493 13.5713774493 18.1432498086

