384

Ba 1.9387682070 1.9387682070 2.3463983129
Ba 1.9387682070 1.9387682070 9.7491015596
Ba 1.9387682070 1.9387682070 14.4418981853
Ba 1.9387682070 1.9387682070 21.8446014320
Ba 1.9387682070 5.8163046211 2.3463983129
Ba 1.9387682070 5.8163046211 9.7491015596
Ba 1.9387682070 5.8163046211 14.4418981853
Ba 1.9387682070 5.8163046211 21.8446014320
Ba 1.9387682070 9.6938410352 2.3463983129
Ba 1.9387682070 9.6938410352 9.7491015596
Ba 1.9387682070 9.6938410352 14.4418981853
Ba 1.9387682070 9.6938410352 21.8446014320
Ba 1.9387682070 13.5713774493 2.3463983129
Ba 1.9387682070 13.5713774493 9.7491015596
Ba 1.9387682070 13.5713774493 14.4418981853
Ba 1.9387682070 13.5713774493 21.8446014320
Ba 5.8163046211 1.9387682070 2.3463983129
Ba 5.8163046211 1.9387682070 9.7491015596
Ba 5.8163046211 1.9387682070 14.4418981853
Ba 5.8163046211 1.9387682070 21.8446014320
Ba 5.8163046211 5.8163046211 2.3463983129
Ba 5.8163046211 5.8163046211 9.7491015596
Ba 5.8163046211 5.8163046211 14.4418981853
Ba 5.8163046211 5.8163046211 21.8446014320
Ba 5.8163046211 9.6938410352 2.3463983129
Ba 5.8163046211 9.6938410352 9.7491015596
Ba 5.8163046211 9.6938410352 14.4418981853
Ba 5.8163046211 9.6938410352 21.8446014320
Ba 5.8163046211 13.5713774493 2.3463983129
Ba 5.8163046211 13.5713774493 9.7491015596
Ba 5.8163046211 13.5713774493 14.4418981853
Ba 5.8163046211 13.5713774493 21.8446014320
Ba 9.6938410352 1.9387682070 2.3463983129
Ba 9.6938410352 1.9387682070 9.7491015596
Ba 9.6938410352 1.9387682070 14.4418981853
Ba 9.6938410352 1.9387682070 21.8446014320
Ba 9.6938410352 5.8163046211 2.3463983129
Ba 9.6938410352 5.8163046211 9.7491015596
Ba 9.6938410352 5.8163046211 14.4418981853
Ba 9.6938410352 5.8163046211 21.8446014320
Ba 9.6938410352 9.6938410352 2.3463983129
Ba 9.6938410352 9.6938410352 9.7491015596
Ba 9.6938410352 9.6938410352 14.4418981853
Ba 9.6938410352 9.6938410352 21.8446014320
Ba 9.6938410352 13.5713774493 2.3463983129
Ba 9.6938410352 13.5713774493 9.7491015596
Ba 9.6938410352 13.5713774493 14.4418981853
Ba 9.6938410352 13.5713774493 21.8446014320
Ba 13.5713774493 1.9387682070 2.3463983129
Ba 13.5713774493 1.9387682070 9.7491015596
Ba 13.5713774493 1.9387682070 14.4418981853
Ba 13.5713774493 1.9387682070 21.8446014320
Ba 13.5713774493 5.8163046211 2.3463983129
Ba 13.5713774493 5.8163046211 9.7491015596
Ba 13.5713774493 5.8163046211 14.4418981853
Ba 13.5713774493 5.8163046211 21.8446014320
Ba 13.5713774493 9.6938410352 2.3463983129
Ba 13.5713774493 9.6938410352 9.7491015596
Ba 13.5713774493 9.6938410352 14.4418981853
Ba 13.5713774493 9.6938410352 21.8446014320
Ba 13.5713774493 13.5713774493 2.3463983129
Ba 13.5713774493 13.5713774493 9.7491015596
Ba 13.5713774493 13.5713774493 14.4418981853
Ba 13.5713774493 13.5713774493 21.8446014320
Cu 0.0000000000 0.0000000000 0.0000000000 PatrialCharge(1.0) 0.286398 0.163963 0.226037
Cu 0.0000000000 0.0000000000 4.3870399043 PatrialCharge(1.0) -0.121003 -0.158816 -0.011655
Cu 0.0000000000 0.0000000000 7.7084599682 PatrialCharge(1.0) -0.143896 -0.136784 -0.024166
Cu 0.0000000000 0.0000000000 12.0954998724 PatrialCharge(1.0) -0.075017 0.131623 -0.130568
Cu 0.0000000000 0.0000000000 16.4825397767 PatrialCharge(1.0) 0.114475 0.163990 -0.001637
Cu 0.0000000000 0.0000000000 19.8039598406 PatrialCharge(1.0) -0.120886 0.133222 -0.087398
Cu 0.0000000000 3.8775364141 0.0000000000 PatrialCharge(1.0) 0.170371 0.031639 0.099864
Cu 0.0000000000 3.8775364141 4.3870399043 PatrialCharge(1.0) 0.099948 -0.098866 0.142253
Cu 0.0000000000 3.8775364141 7.7084599682 PatrialCharge(1.0) -0.104410 -0.140579 -0.096623
Cu 0.0000000000 3.8775364141 12.0954998724 PatrialCharge(1.0) 0.150717 0.127808 0.030811
Cu 0.0000000000 3.8775364141 16.4825397767 PatrialCharge(1.0) 0.140207 0.126276 -0.066305
Cu 0.0000000000 3.8775364141 19.8039598406 PatrialCharge(1.0) 0.051976 -0.032112 0.190440
Cu 0.0000000000 7.7550728282 0.0000000000 PatrialCharge(1.0) 0.127171 -0.077820 0.133310
Cu 0.0000000000 7.7550728282 4.3870399043 PatrialCharge(1.0) 0.015145 0.177809 -0.090303
Cu 0.0000000000 7.7550728282 7.7084599682 PatrialCharge(1.0) 0.112118 0.143729 -0.082289
Cu 0.0000000000 7.7550728282 12.0954998724 PatrialCharge(1.0) 0.129100 -0.002447 -0.152732
Cu 0.0000000000 7.7550728282 16.4825397767 PatrialCharge(1.0) -0.023472 0.145385 -0.135323
Cu 0.0000000000 7.7550728282 19.8039598406
Cu 0.0000000000 11.6326092423 0.0000000000 PatrialCharge(1.0) -0.152406 -0.118247 0.052821
Cu 0.0000000000 11.6326092423 4.3870399043 PatrialCharge(1.0) 0.010896 0.119056 0.160334
Cu 0.0000000000 11.6326092423 7.7084599682 PatrialCharge(1.0) 0.140515 0.025556 -0.140009
Cu 0.0000000000 11.6326092423 12.0954998724 PatrialCharge(1.0) 0.049849 -0.146672 0.126501
Cu 0.0000000000 11.6326092423 16.4825397767 PatrialCharge(1.0) 0.154842 0.126537 0.003532
Cu 0.0000000000 11.6326092423 19.8039598406
Cu 3.8775364141 0.0000000000 0.0000000000
Cu 3.8775364141 0.0000000000 4.3870399043
Cu 3.8775364141 0.0000000000 7.7084599682
Cu 3.8775364141 0.0000000000 12.0954998724
Cu 3.8775364141 0.0000000000 16.4825397767
Cu 3.8775364141 0.0000000000 19.8039598406
Cu 3.8775364141 3.8775364141 0.0000000000 PatrialCharge(1.0) 0.143344 0.120844 -0.069636
Cu 3.8775364141 3.8775364141 4.3870399043 PatrialCharge(1.0) -0.137877 0.056202 0.133534
Cu 3.8775364141 3.8775364141 7.7084599682 PatrialCharge(1.0) -0.186208 -0.065417 0.032360
Cu 3.8775364141 3.8775364141 12.0954998724 PatrialCharge(1.0) -0.188862 0.049117 -0.043804
Cu 3.8775364141 3.8775364141 16.4825397767 PatrialCharge(1.0) -0.085033 0.097740 -0.152369
Cu 3.8775364141 3.8775364141 19.8039598406 PatrialCharge(1.0) -0.064560 -0.030931 -0.186749
Cu 3.8775364141 7.7550728282 0.0000000000 PatrialCharge(1.0) -0.101675 0.096387 0.142730
Cu 3.8775364141 7.7550728282 4.3870399043 PatrialCharge(1.0) 0.136875 -0.121770 0.080233
Cu 3.8775364141 7.7550728282 7.7084599682 PatrialCharge(1.0) 0.029591 -0.128327 0.150521
Cu 3.8775364141 7.7550728282 12.0954998724 PatrialCharge(1.0) 0.049313 0.193594 0.009475
Cu 3.8775364141 7.7550728282 16.4825397767 PatrialCharge(1.0) -0.089990 0.143554 0.106274
Cu 3.8775364141 7.7550728282 19.8039598406
Cu 3.8775364141 11.6326092423 0.0000000000 PatrialCharge(1.0) -0.178216 0.041569 0.080692
Cu 3.8775364141 11.6326092423 4.3870399043 PatrialCharge(1.0) -0.062236 -0.186994 0.034060
Cu 3.8775364141 11.6326092423 7.7084599682 PatrialCharge(1.0) 0.120178 -0.112227 0.113852
Cu 3.8775364141 11.6326092423 12.0954998724 PatrialCharge(1.0) 0.055161 -0.175626 -0.078184
Cu 3.8775364141 11.6326092423 16.4825397767 PatrialCharge(1.0) -0.126925 0.137309 0.070966
Cu 3.8775364141 11.6326092423 19.8039598406
Cu 7.7550728282 0.0000000000 0.0000000000
Cu 7.7550728282 0.0000000000 4.3870399043
Cu 7.7550728282 0.0000000000 7.7084599682
Cu 7.7550728282 0.0000000000 12.0954998724
Cu 7.7550728282 0.0000000000 16.4825397767
Cu 7.7550728282 0.0000000000 19.8039598406
Cu 7.7550728282 3.8775364141 0.0000000000
Cu 7.7550728282 3.8775364141 4.3870399043
Cu 7.7550728282 3.8775364141 7.7084599682
Cu 7.7550728282 3.8775364141 12.0954998724
Cu 7.7550728282 3.8775364141 16.4825397767
Cu 7.7550728282 3.8775364141 19.8039598406
Cu 7.7550728282 7.7550728282 0.0000000000 PatrialCharge(1.0) -0.072954 0.130262 -0.133077
Cu 7.7550728282 7.7550728282 4.3870399043 PatrialCharge(1.0) -0.179198 0.077940 -0.042582
Cu 7.7550728282 7.7550728282 7.7084599682 PatrialCharge(1.0) -0.128363 0.033901 -0.149579
Cu 7.7550728282 7.7550728282 12.0954998724 PatrialCharge(1.0) 0.092576 -0.167132 -0.059132
Cu 7.7550728282 7.7550728282 16.4825397767
Cu 7.7550728282 7.7550728282 19.8039598406
Cu 7.7550728282 11.6326092423 0.0000000000 PatrialCharge(1.0) 0.163214 -0.048057 0.105127
Cu 7.7550728282 11.6326092423 4.3870399043 PatrialCharge(1.0) 0.005941 0.082500 0.182095
Cu 7.7550728282 11.6326092423 7.7084599682 PatrialCharge(1.0) 0.177315 -0.088297 -0.027622
Cu 7.7550728282 11.6326092423 12.0954998724 PatrialCharge(1.0) 0.093436 -0.030338 0.174210
Cu 7.7550728282 11.6326092423 16.4825397767
Cu 7.7550728282 11.6326092423 19.8039598406
Cu 11.6326092423 0.0000000000 0.0000000000
Cu 11.6326092423 0.0000000000 4.3870399043
Cu 11.6326092423 0.0000000000 7.7084599682
Cu 11.6326092423 0.0000000000 12.0954998724
Cu 11.6326092423 0.0000000000 16.4825397767
Cu 11.6326092423 0.0000000000 19.8039598406
Cu 11.6326092423 3.8775364141 0.0000000000
Cu 11.6326092423 3.8775364141 4.3870399043
Cu 11.6326092423 3.8775364141 7.7084599682
Cu 11.6326092423 3.8775364141 12.0954998724
Cu 11.6326092423 3.8775364141 16.4825397767
Cu 11.6326092423 3.8775364141 19.8039598406
Cu 11.6326092423 7.7550728282 0.0000000000
Cu 11.6326092423 7.7550728282 4.3870399043
Cu 11.6326092423 7.7550728282 7.7084599682
Cu 11.6326092423 7.7550728282 12.0954998724
Cu 11.6326092423 7.7550728282 16.4825397767
Cu 11.6326092423 7.7550728282 19.8039598406
Cu 11.6326092423 11.6326092423 0.0000000000 PatrialCharge(1.0) -0.197528 0.013334 -0.028371
Cu 11.6326092423 11.6326092423 4.3870399043 PatrialCharge(1.0) 0.001839 -0.193628 0.050049
Cu 11.6326092423 11.6326092423 7.7084599682 PatrialCharge(1.0) -0.153481 0.033127 -0.123880
Cu 11.6326092423 11.6326092423 12.0954998724 PatrialCharge(1.0) -0.017578 -0.184927 0.074114
Cu 11.6326092423 11.6326092423 16.4825397767
Cu 11.6326092423 11.6326092423 19.8039598406
O 0.0000000000 0.0000000000 1.8172210033
O 0.0000000000 0.0000000000 10.2782788691
O 0.0000000000 1.9387682070 4.5943263840
O 1.9387682070 0.0000000000 4.5943263840
O 0.0000000000 1.9387682070 7.5011734885
O 1.9387682070 0.0000000000 7.5011734885
O 0.0000000000 0.0000000000 13.9127208757
O 0.0000000000 0.0000000000 22.3737787415
O 0.0000000000 1.9387682070 16.6898262564
O 1.9387682070 0.0000000000 16.6898262564
O 0.0000000000 1.9387682070 19.5966733609
O 1.9387682070 0.0000000000 19.5966733609
O 0.0000000000 3.8775364141 1.8172210033
O 0.0000000000 3.8775364141 10.2782788691
O 0.0000000000 5.8163046211 4.5943263840
O 1.9387682070 3.8775364141 4.5943263840
O 0.0000000000 5.8163046211 7.5011734885
O 1.9387682070 3.8775364141 7.5011734885
O 0.0000000000 3.8775364141 13.9127208757
O 0.0000000000 3.8775364141 22.3737787415
O 0.0000000000 5.8163046211 16.6898262564
O 1.9387682070 3.8775364141 16.6898262564
O 0.0000000000 5.8163046211 19.5966733609
O 1.9387682070 3.8775364141 19.5966733609
O 0.0000000000 7.7550728282 1.8172210033
O 0.0000000000 7.7550728282 10.2782788691
O 0.0000000000 9.6938410352 4.5943263840
O 1.9387682070 7.7550728282 4.5943263840
O 0.0000000000 9.6938410352 7.5011734885
O 1.9387682070 7.7550728282 7.5011734885
O 0.0000000000 7.7550728282 13.9127208757
O 0.0000000000 7.7550728282 22.3737787415
O 0.0000000000 9.6938410352 16.6898262564
O 1.9387682070 7.7550728282 16.6898262564
O 0.0000000000 9.6938410352 19.5966733609
O 1.9387682070 7.7550728282 19.5966733609
O 0.0000000000 11.6326092423 1.8172210033
O 0.0000000000 11.6326092423 10.2782788691
O 0.0000000000 13.5713774493 4.5943263840
O 1.9387682070 11.6326092423 4.5943263840
O 0.0000000000 13.5713774493 7.5011734885
O 1.9387682070 11.6326092423 7.5011734885
O 0.0000000000 11.6326092423 13.9127208757
O 0.0000000000 11.6326092423 22.3737787415
O 0.0000000000 13.5713774493 16.6898262564
O 1.9387682070 11.6326092423 16.6898262564
O 0.0000000000 13.5713774493 19.5966733609
O 1.9387682070 11.6326092423 19.5966733609
O 3.8775364141 0.0000000000 1.8172210033
O 3.8775364141 0.0000000000 10.2782788691
O 3.8775364141 1.9387682070 4.5943263840
O 5.8163046211 0.0000000000 4.5943263840
O 3.8775364141 1.9387682070 7.5011734885
O 5.8163046211 0.0000000000 7.5011734885
O 3.8775364141 0.0000000000 13.9127208757
O 3.8775364141 0.0000000000 22.3737787415
O 3.8775364141 1.9387682070 16.6898262564
O 5.8163046211 0.0000000000 16.6898262564
O 3.8775364141 1.9387682070 19.5966733609
O 5.8163046211 0.0000000000 19.5966733609
O 3.8775364141 3.8775364141 1.8172210033
O 3.8775364141 3.8775364141 10.2782788691
O 3.8775364141 5.8163046211 4.5943263840
O 5.8163046211 3.8775364141 4.5943263840
O 3.8775364141 5.8163046211 7.5011734885
O 5.8163046211 3.8775364141 7.5011734885
O 3.8775364141 3.8775364141 13.9127208757
O 3.8775364141 3.8775364141 22.3737787415
O 3.8775364141 5.8163046211 16.6898262564
O 5.8163046211 3.8775364141 16.6898262564
O 3.8775364141 5.8163046211 19.5966733609
O 5.8163046211 3.8775364141 19.5966733609
O 3.8775364141 7.7550728282 1.8172210033
O 3.8775364141 7.7550728282 10.2782788691
O 3.8775364141 9.6938410352 4.5943263840
O 5.8163046211 7.7550728282 4.5943263840
O 3.8775364141 9.6938410352 7.5011734885
O 5.8163046211 7.7550728282 7.5011734885
O 3.8775364141 7.7550728282 13.9127208757
O 3.8775364141 7.7550728282 22.3737787415
O 3.8775364141 9.6938410352 16.6898262564
O 5.8163046211 7.7550728282 16.6898262564
O 3.8775364141 9.6938410352 19.5966733609
O 5.8163046211 7.7550728282 19.5966733609
O 3.8775364141 11.6326092423 1.8172210033
O 3.8775364141 11.6326092423 10.2782788691
O 3.8775364141 13.5713774493 4.5943263840
O 5.8163046211 11.6326092423 4.5943263840
O 3.8775364141 13.5713774493 7.5011734885
O 5.8163046211 11.6326092423 7.5011734885
O 3.8775364141 11.6326092423 13.9127208757
O 3.8775364141 11.6326092423 22.3737787415
O 3.8775364141 13.5713774493 16.6898262564
O 5.8163046211 11.6326092423 16.6898262564
O 3.8775364141 13.5713774493 19.5966733609
O 5.8163046211 11.6326092423 19.5966733609
O 7.7550728282 0.0000000000 1.8172210033
O 7.7550728282 0.0000000000 10.2782788691
O 7.7550728282 1.9387682070 4.5943263840
O 9.6938410352 0.0000000000 4.5943263840
O 7.7550728282 1.9387682070 7.5011734885
O 9.6938410352 0.0000000000 7.5011734885
O 7.7550728282 0.0000000000 13.9127208757
O 7.7550728282 0.0000000000 22.3737787415
O 7.7550728282 1.9387682070 16.6898262564
O 9.6938410352 0.0000000000 16.6898262564
O 7.7550728282 1.9387682070 19.5966733609
O 9.6938410352 0.0000000000 19.5966733609
O 7.7550728282 3.8775364141 1.8172210033
O 7.7550728282 3.8775364141 10.2782788691
O 7.7550728282 5.8163046211 4.5943263840
O 9.6938410352 3.8775364141 4.5943263840
O 7.7550728282 5.8163046211 7.5011734885
O 9.6938410352 3.8775364141 7.5011734885
O 7.7550728282 3.8775364141 13.9127208757
O 7.7550728282 3.8775364141 22.3737787415
O 7.7550728282 5.8163046211 16.6898262564
O 9.6938410352 3.8775364141 16.6898262564
O 7.7550728282 5.8163046211 19.5966733609
O 9.6938410352 3.8775364141 19.5966733609
O 7.7550728282 7.7550728282 1.8172210033
O 7.7550728282 7.7550728282 10.2782788691
O 7.7550728282 9.6938410352 4.5943263840
O 9.6938410352 7.7550728282 4.5943263840
O 7.7550728282 9.6938410352 7.5011734885
O 9.6938410352 7.7550728282 7.5011734885
O 7.7550728282 7.7550728282 13.9127208757
O 7.7550728282 7.7550728282 22.3737787415
O 7.7550728282 9.6938410352 16.6898262564
O 9.6938410352 7.7550728282 16.6898262564
O 7.7550728282 9.6938410352 19.5966733609
O 9.6938410352 7.7550728282 19.5966733609
O 7.7550728282 11.6326092423 1.8172210033
O 7.7550728282 11.6326092423 10.2782788691
O 7.7550728282 13.5713774493 4.5943263840
O 9.6938410352 11.6326092423 4.5943263840
O 7.7550728282 13.5713774493 7.5011734885
O 9.6938410352 11.6326092423 7.5011734885
O 7.7550728282 11.6326092423 13.9127208757
O 7.7550728282 11.6326092423 22.3737787415
O 7.7550728282 13.5713774493 16.6898262564
O 9.6938410352 11.6326092423 16.6898262564
O 7.7550728282 13.5713774493 19.5966733609
O 9.6938410352 11.6326092423 19.5966733609
O 11.6326092423 0.0000000000 1.8172210033
O 11.6326092423 0.0000000000 10.2782788691
O 11.6326092423 1.9387682070 4.5943263840
O 13.5713774493 0.0000000000 4.5943263840
O 11.6326092423 1.9387682070 7.5011734885
O 13.5713774493 0.0000000000 7.5011734885
O 11.6326092423 0.0000000000 13.9127208757
O 11.6326092423 0.0000000000 22.3737787415
O 11.6326092423 1.9387682070 16.6898262564
O 13.5713774493 0.0000000000 16.6898262564
O 11.6326092423 1.9387682070 19.5966733609
O 13.5713774493 0.0000000000 19.5966733609
O 11.6326092423 3.8775364141 1.8172210033
O 11.6326092423 3.8775364141 10.2782788691
O 11.6326092423 5.8163046211 4.5943263840
O 13.5713774493 3.8775364141 4.5943263840
O 11.6326092423 5.8163046211 7.5011734885
O 13.5713774493 3.8775364141 7.5011734885
O 11.6326092423 3.8775364141 13.9127208757
O 11.6326092423 3.8775364141 22.3737787415
O 11.6326092423 5.8163046211 16.6898262564
O 13.5713774493 3.8775364141 16.6898262564
O 11.6326092423 5.8163046211 19.5966733609
O 13.5713774493 3.8775364141 19.5966733609
O 11.6326092423 7.7550728282 1.8172210033
O 11.6326092423 7.7550728282 10.2782788691
O 11.6326092423 9.6938410352 4.5943263840
O 13.5713774493 7.7550728282 4.5943263840
O 11.6326092423 9.6938410352 7.5011734885
O 13.5713774493 7.7550728282 7.5011734885
O 11.6326092423 7.7550728282 13.9127208757
O 11.6326092423 7.7550728282 22.3737787415
O 11.6326092423 9.6938410352 16.6898262564
O 13.5713774493 7.7550728282 16.6898262564
O 11.6326092423 9.6938410352 19.5966733609
O 13.5713774493 7.7550728282 19.5966733609
O 11.6326092423 11.6326092423 1.8172210033
O 11.6326092423 11.6326092423 10.2782788691
O 11.6326092423 13.5713774493 4.5943263840
O 13.5713774493 11.6326092423 4.5943263840
O 11.6326092423 13.5713774493 7.5011734885
O 13.5713774493 11.6326092423 7.5011734885
O 11.6326092423 11.6326092423 13.9127208757
O 11.6326092423 11.6326092423 22.3737787415
O 11.6326092423 13.5713774493 16.6898262564
O 13.5713774493 11.6326092423 16.6898262564
O 11.6326092423 13.5713774493 19.5966733609
O 13.5713774493 11.6326092423 19.5966733609
Y 1.9387682070 1.9387682070 6.0477499362
Y 1.9387682070 1.9387682070 18.1432498086
Y 1.9387682070 5.8163046211 6.0477499362
Y 1.9387682070 5.8163046211 18.1432498086
Y 1.9387682070 9.6938410352 6.0477499362
Y 1.9387682070 9.6938410352 18.1432498086
Y 1.9387682070 13.5713774493 6.0477499362
Y 1.9387682070 13.5713774493 18.1432498086
Y 5.8163046211 1.9387682070 6.0477499362
Y 5.8163046211 1.9387682070 18.1432498086
Y 5.8163046211 5.8163046211 6.0477499362
Y 5.8163046211 5.8163046211 18.1432498086
Y 5.8163046211 9.6938410352 6.0477499362
Y 5.8163046211 9.6938410352 18.1432498086
Y 5.8163046211 13.5713774493 6.0477499362
Y 5.8163046211 13.5713774493 18.1432498086
Y 9.6938410352 1.9387682070 6.0477499362
Y 9.6938410352 1.9387682070 18.1432498086
Y 9.6938410352 5.8163046211 6.0477499362
Y 9.6938410352 5.8163046211 18.1432498086
Y 9.6938410352 9.6938410352 6.0477499362
Y 9.6938410352 9.6938410352 18.1432498086
Y 9.6938410352 13.5713774493 6.0477499362
Y 9.6938410352 13.5713774493 18.1432498086
Y 13.5713774493 1.9387682070 6.0477499362
Y 13.5713774493 1.9387682070 18.1432498086
Y 13.5713774493 5.8163046211 6.0477499362
Y 13.5713774493 5.8163046211 18.1432498086
Y 13.5713774493 9.6938410352 6.0477499362
Y 13.5713774493 9.6938410352 18.1432498086
Y 13.5713774493 13.5713774493 6.0477499362
Y 13.5713774493 13.5713774493 18.1432498086

