48

Ba 0.0000000000 0.0000000000 2.3463983129
Ba 0.0000000000 0.0000000000 9.7491015595
Ba 0.0000000000 3.8775364141 2.3463983129
Ba 0.0000000000 3.8775364141 9.7491015595
Ba 3.8775364141 0.0000000000 2.3463983129
Ba 3.8775364141 0.0000000000 9.7491015595
Ba 3.8775364141 3.8775364141 2.3463983129
Ba 3.8775364141 3.8775364141 9.7491015595
Cu 1.9387682071 1.9387682071 0.0000000000 PatrialCharge(1.0) -0.217253 0.247306 -0.227246
Cu 1.9387682071 1.9387682071 4.3870399043 PatrialCharge(1.0) 0.030026 -0.170339 0.100415
Cu 1.9387682071 1.9387682071 7.7084599681
Cu 1.9387682071 5.8163046212 0.0000000000
Cu 1.9387682071 5.8163046212 4.3870399043 PatrialCharge(1.0) -0.052493 -0.174639 0.082133
Cu 1.9387682071 5.8163046212 7.7084599681
Cu 5.8163046212 1.9387682071 0.0000000000
Cu 5.8163046212 1.9387682071 4.3870399043
Cu 5.8163046212 1.9387682071 7.7084599681
Cu 5.8163046212 5.8163046212 0.0000000000
Cu 5.8163046212 5.8163046212 4.3870399043 PatrialCharge(1.0) 0.123950 -0.063997 -0.143321
Cu 5.8163046212 5.8163046212 7.7084599681
O 1.9387682071 1.9387682071 1.8172210033
O 1.9387682071 1.9387682071 10.2782788691
O 1.9387682071 0.0000000000 4.5943263840
O 0.0000000000 1.9387682071 4.5943263840
O 1.9387682071 0.0000000000 7.5011734884
O 0.0000000000 1.9387682071 7.5011734884
O 1.9387682071 5.8163046212 1.8172210033
O 1.9387682071 5.8163046212 10.2782788691
O 1.9387682071 3.8775364141 4.5943263840
O 0.0000000000 5.8163046212 4.5943263840
O 1.9387682071 3.8775364141 7.5011734884
O 0.0000000000 5.8163046212 7.5011734884
O 5.8163046212 1.9387682071 1.8172210033
O 5.8163046212 1.9387682071 10.2782788691
O 5.8163046212 0.0000000000 4.5943263840
O 3.8775364141 1.9387682071 4.5943263840
O 5.8163046212 0.0000000000 7.5011734884
O 3.8775364141 1.9387682071 7.5011734884
O 5.8163046212 5.8163046212 1.8172210033
O 5.8163046212 5.8163046212 10.2782788691
O 5.8163046212 3.8775364141 4.5943263840
O 3.8775364141 5.8163046212 4.5943263840
O 5.8163046212 3.8775364141 7.5011734884
O 3.8775364141 5.8163046212 7.5011734884
Y 0.0000000000 0.0000000000 6.0477499362
Y 0.0000000000 3.8775364141 6.0477499362
Y 3.8775364141 0.0000000000 6.0477499362
Y 3.8775364141 3.8775364141 6.0477499362

