6

Fe -0.0000207737 2.3987511327 3.4968469863 PatrialCharge(1.0) -0.121935 -0.157228 0.020279
Fe 2.0773492263 1.1993575758 1.7446234271
Fe -0.0000207737 2.3987511327 1.0877623549
Fe 2.0773492263 1.1993575758 4.1537080585
Fe 0.0000000000 0.0000000000 2.6207352067 PatrialCharge(1.0) -0.169778 -0.200585 0.301565
Sn 0.0000000000 0.0000000000 0.0000000000

