216

Ba 0.0000000000 0.0000000000 2.3463983129
Ba 0.0000000000 0.0000000000 9.7491015595
Ba 0.0000000000 0.0000000000 14.4418981853
Ba 0.0000000000 0.0000000000 21.8446014319
Ba 0.0000000000 3.8775364141 2.3463983129
Ba 0.0000000000 3.8775364141 9.7491015595
Ba 0.0000000000 3.8775364141 14.4418981853
Ba 0.0000000000 3.8775364141 21.8446014319
Ba 0.0000000000 7.7550728282 2.3463983129
Ba 0.0000000000 7.7550728282 9.7491015595
Ba 0.0000000000 7.7550728282 14.4418981853
Ba 0.0000000000 7.7550728282 21.8446014319
Ba 3.8775364141 0.0000000000 2.3463983129
Ba 3.8775364141 0.0000000000 9.7491015595
Ba 3.8775364141 0.0000000000 14.4418981853
Ba 3.8775364141 0.0000000000 21.8446014319
Ba 3.8775364141 3.8775364141 2.3463983129
Ba 3.8775364141 3.8775364141 9.7491015595
Ba 3.8775364141 3.8775364141 14.4418981853
Ba 3.8775364141 3.8775364141 21.8446014319
Ba 3.8775364141 7.7550728282 2.3463983129
Ba 3.8775364141 7.7550728282 9.7491015595
Ba 3.8775364141 7.7550728282 14.4418981853
Ba 3.8775364141 7.7550728282 21.8446014319
Ba 7.7550728282 0.0000000000 2.3463983129
Ba 7.7550728282 0.0000000000 9.7491015595
Ba 7.7550728282 0.0000000000 14.4418981853
Ba 7.7550728282 0.0000000000 21.8446014319
Ba 7.7550728282 3.8775364141 2.3463983129
Ba 7.7550728282 3.8775364141 9.7491015595
Ba 7.7550728282 3.8775364141 14.4418981853
Ba 7.7550728282 3.8775364141 21.8446014319
Ba 7.7550728282 7.7550728282 2.3463983129
Ba 7.7550728282 7.7550728282 9.7491015595
Ba 7.7550728282 7.7550728282 14.4418981853
Ba 7.7550728282 7.7550728282 21.8446014319
Cu 1.9387682071 1.9387682071 0.0000000000 PatrialCharge(1.0) 0.200523 -0.179521 -0.295910
Cu 1.9387682071 1.9387682071 4.3870399043 PatrialCharge(1.0) 0.059062 -0.038165 0.187230
Cu 1.9387682071 1.9387682071 7.7084599681
Cu 1.9387682071 1.9387682071 12.0954998724
Cu 1.9387682071 1.9387682071 16.4825397767
Cu 1.9387682071 1.9387682071 19.8039598405
Cu 1.9387682071 5.8163046212 0.0000000000
Cu 1.9387682071 5.8163046212 4.3870399043 PatrialCharge(1.0) -0.170766 0.083119 0.062691
Cu 1.9387682071 5.8163046212 7.7084599681
Cu 1.9387682071 5.8163046212 12.0954998724
Cu 1.9387682071 5.8163046212 16.4825397767
Cu 1.9387682071 5.8163046212 19.8039598405
Cu 1.9387682071 9.6938410353 0.0000000000
Cu 1.9387682071 9.6938410353 4.3870399043
Cu 1.9387682071 9.6938410353 7.7084599681
Cu 1.9387682071 9.6938410353 12.0954998724
Cu 1.9387682071 9.6938410353 16.4825397767
Cu 1.9387682071 9.6938410353 19.8039598405
Cu 5.8163046212 1.9387682071 0.0000000000
Cu 5.8163046212 1.9387682071 4.3870399043
Cu 5.8163046212 1.9387682071 7.7084599681
Cu 5.8163046212 1.9387682071 12.0954998724
Cu 5.8163046212 1.9387682071 16.4825397767
Cu 5.8163046212 1.9387682071 19.8039598405
Cu 5.8163046212 5.8163046212 0.0000000000
Cu 5.8163046212 5.8163046212 4.3870399043 PatrialCharge(1.0) 0.061935 0.189452 -0.016492
Cu 5.8163046212 5.8163046212 7.7084599681
Cu 5.8163046212 5.8163046212 12.0954998724
Cu 5.8163046212 5.8163046212 16.4825397767
Cu 5.8163046212 5.8163046212 19.8039598405
Cu 5.8163046212 9.6938410353 0.0000000000
Cu 5.8163046212 9.6938410353 4.3870399043
Cu 5.8163046212 9.6938410353 7.7084599681
Cu 5.8163046212 9.6938410353 12.0954998724
Cu 5.8163046212 9.6938410353 16.4825397767
Cu 5.8163046212 9.6938410353 19.8039598405
Cu 9.6938410353 1.9387682071 0.0000000000
Cu 9.6938410353 1.9387682071 4.3870399043
Cu 9.6938410353 1.9387682071 7.7084599681
Cu 9.6938410353 1.9387682071 12.0954998724
Cu 9.6938410353 1.9387682071 16.4825397767
Cu 9.6938410353 1.9387682071 19.8039598405
Cu 9.6938410353 5.8163046212 0.0000000000
Cu 9.6938410353 5.8163046212 4.3870399043
Cu 9.6938410353 5.8163046212 7.7084599681
Cu 9.6938410353 5.8163046212 12.0954998724
Cu 9.6938410353 5.8163046212 16.4825397767
Cu 9.6938410353 5.8163046212 19.8039598405
Cu 9.6938410353 9.6938410353 0.0000000000
Cu 9.6938410353 9.6938410353 4.3870399043
Cu 9.6938410353 9.6938410353 7.7084599681
Cu 9.6938410353 9.6938410353 12.0954998724
Cu 9.6938410353 9.6938410353 16.4825397767
Cu 9.6938410353 9.6938410353 19.8039598405
O 1.9387682071 1.9387682071 1.8172210033
O 1.9387682071 1.9387682071 10.2782788691
O 1.9387682071 0.0000000000 4.5943263840
O 0.0000000000 1.9387682071 4.5943263840
O 1.9387682071 0.0000000000 7.5011734884
O 0.0000000000 1.9387682071 7.5011734884
O 1.9387682071 1.9387682071 13.9127208757
O 1.9387682071 1.9387682071 22.3737787415
O 1.9387682071 0.0000000000 16.6898262564
O 0.0000000000 1.9387682071 16.6898262564
O 1.9387682071 0.0000000000 19.5966733608
O 0.0000000000 1.9387682071 19.5966733608
O 1.9387682071 5.8163046212 1.8172210033
O 1.9387682071 5.8163046212 10.2782788691
O 1.9387682071 3.8775364141 4.5943263840
O 0.0000000000 5.8163046212 4.5943263840
O 1.9387682071 3.8775364141 7.5011734884
O 0.0000000000 5.8163046212 7.5011734884
O 1.9387682071 5.8163046212 13.9127208757
O 1.9387682071 5.8163046212 22.3737787415
O 1.9387682071 3.8775364141 16.6898262564
O 0.0000000000 5.8163046212 16.6898262564
O 1.9387682071 3.8775364141 19.5966733608
O 0.0000000000 5.8163046212 19.5966733608
O 1.9387682071 9.6938410353 1.8172210033
O 1.9387682071 9.6938410353 10.2782788691
O 1.9387682071 7.7550728282 4.5943263840
O 0.0000000000 9.6938410353 4.5943263840
O 1.9387682071 7.7550728282 7.5011734884
O 0.0000000000 9.6938410353 7.5011734884
O 1.9387682071 9.6938410353 13.9127208757
O 1.9387682071 9.6938410353 22.3737787415
O 1.9387682071 7.7550728282 16.6898262564
O 0.0000000000 9.6938410353 16.6898262564
O 1.9387682071 7.7550728282 19.5966733608
O 0.0000000000 9.6938410353 19.5966733608
O 5.8163046212 1.9387682071 1.8172210033
O 5.8163046212 1.9387682071 10.2782788691
O 5.8163046212 0.0000000000 4.5943263840
O 3.8775364141 1.9387682071 4.5943263840
O 5.8163046212 0.0000000000 7.5011734884
O 3.8775364141 1.9387682071 7.5011734884
O 5.8163046212 1.9387682071 13.9127208757
O 5.8163046212 1.9387682071 22.3737787415
O 5.8163046212 0.0000000000 16.6898262564
O 3.8775364141 1.9387682071 16.6898262564
O 5.8163046212 0.0000000000 19.5966733608
O 3.8775364141 1.9387682071 19.5966733608
O 5.8163046212 5.8163046212 1.8172210033
O 5.8163046212 5.8163046212 10.2782788691
O 5.8163046212 3.8775364141 4.5943263840
O 3.8775364141 5.8163046212 4.5943263840
O 5.8163046212 3.8775364141 7.5011734884
O 3.8775364141 5.8163046212 7.5011734884
O 5.8163046212 5.8163046212 13.9127208757
O 5.8163046212 5.8163046212 22.3737787415
O 5.8163046212 3.8775364141 16.6898262564
O 3.8775364141 5.8163046212 16.6898262564
O 5.8163046212 3.8775364141 19.5966733608
O 3.8775364141 5.8163046212 19.5966733608
O 5.8163046212 9.6938410353 1.8172210033
O 5.8163046212 9.6938410353 10.2782788691
O 5.8163046212 7.7550728282 4.5943263840
O 3.8775364141 9.6938410353 4.5943263840
O 5.8163046212 7.7550728282 7.5011734884
O 3.8775364141 9.6938410353 7.5011734884
O 5.8163046212 9.6938410353 13.9127208757
O 5.8163046212 9.6938410353 22.3737787415
O 5.8163046212 7.7550728282 16.6898262564
O 3.8775364141 9.6938410353 16.6898262564
O 5.8163046212 7.7550728282 19.5966733608
O 3.8775364141 9.6938410353 19.5966733608
O 9.6938410353 1.9387682071 1.8172210033
O 9.6938410353 1.9387682071 10.2782788691
O 9.6938410353 0.0000000000 4.5943263840
O 7.7550728282 1.9387682071 4.5943263840
O 9.6938410353 0.0000000000 7.5011734884
O 7.7550728282 1.9387682071 7.5011734884
O 9.6938410353 1.9387682071 13.9127208757
O 9.6938410353 1.9387682071 22.3737787415
O 9.6938410353 0.0000000000 16.6898262564
O 7.7550728282 1.9387682071 16.6898262564
O 9.6938410353 0.0000000000 19.5966733608
O 7.7550728282 1.9387682071 19.5966733608
O 9.6938410353 5.8163046212 1.8172210033
O 9.6938410353 5.8163046212 10.2782788691
O 9.6938410353 3.8775364141 4.5943263840
O 7.7550728282 5.8163046212 4.5943263840
O 9.6938410353 3.8775364141 7.5011734884
O 7.7550728282 5.8163046212 7.5011734884
O 9.6938410353 5.8163046212 13.9127208757
O 9.6938410353 5.8163046212 22.3737787415
O 9.6938410353 3.8775364141 16.6898262564
O 7.7550728282 5.8163046212 16.6898262564
O 9.6938410353 3.8775364141 19.5966733608
O 7.7550728282 5.8163046212 19.5966733608
O 9.6938410353 9.6938410353 1.8172210033
O 9.6938410353 9.6938410353 10.2782788691
O 9.6938410353 7.7550728282 4.5943263840
O 7.7550728282 9.6938410353 4.5943263840
O 9.6938410353 7.7550728282 7.5011734884
O 7.7550728282 9.6938410353 7.5011734884
O 9.6938410353 9.6938410353 13.9127208757
O 9.6938410353 9.6938410353 22.3737787415
O 9.6938410353 7.7550728282 16.6898262564
O 7.7550728282 9.6938410353 16.6898262564
O 9.6938410353 7.7550728282 19.5966733608
O 7.7550728282 9.6938410353 19.5966733608
Y 0.0000000000 0.0000000000 6.0477499362
Y 0.0000000000 0.0000000000 18.1432498086
Y 0.0000000000 3.8775364141 6.0477499362
Y 0.0000000000 3.8775364141 18.1432498086
Y 0.0000000000 7.7550728282 6.0477499362
Y 0.0000000000 7.7550728282 18.1432498086
Y 3.8775364141 0.0000000000 6.0477499362
Y 3.8775364141 0.0000000000 18.1432498086
Y 3.8775364141 3.8775364141 6.0477499362
Y 3.8775364141 3.8775364141 18.1432498086
Y 3.8775364141 7.7550728282 6.0477499362
Y 3.8775364141 7.7550728282 18.1432498086
Y 7.7550728282 0.0000000000 6.0477499362
Y 7.7550728282 0.0000000000 18.1432498086
Y 7.7550728282 3.8775364141 6.0477499362
Y 7.7550728282 3.8775364141 18.1432498086
Y 7.7550728282 7.7550728282 6.0477499362
Y 7.7550728282 7.7550728282 18.1432498086

